Version 4
SHEET 1 1144 1176
WIRE 208 192 48 192
WIRE 384 192 208 192
WIRE 48 240 48 192
WIRE 384 256 384 192
WIRE 688 288 528 288
WIRE 848 288 768 288
WIRE 944 288 848 288
WIRE 528 336 528 288
WIRE 48 368 48 320
WIRE 384 384 384 336
WIRE 848 384 848 288
WIRE 528 464 528 416
WIRE 848 496 848 448
WIRE -544 928 -544 912
WIRE -400 928 -400 912
WIRE -272 928 -272 912
WIRE -128 928 -128 912
WIRE -16 928 -16 912
WIRE 128 928 128 912
WIRE 256 928 256 912
WIRE 400 928 400 912
WIRE -544 1008 -544 928
WIRE -400 1008 -400 928
WIRE -272 1008 -272 928
WIRE -128 1008 -128 928
WIRE -16 1008 -16 928
WIRE 128 1008 128 928
WIRE 256 1008 256 928
WIRE 400 1008 400 928
WIRE -544 1152 -544 1088
WIRE -400 1152 -400 1088
WIRE -272 1152 -272 1088
WIRE -128 1152 -128 1088
WIRE -16 1152 -16 1088
WIRE 128 1152 128 1088
WIRE 256 1152 256 1088
WIRE 400 1152 400 1088
FLAG 208 192 IN1
FLAG 528 464 0
FLAG 848 496 0
FLAG 944 288 OUT
IOPIN 944 288 Out
FLAG 48 368 0
FLAG 384 384 0
FLAG -16 1152 0
FLAG -16 928 CLK4
FLAG 128 1152 0
FLAG 128 928 CLK5
FLAG 256 1152 0
FLAG 256 928 CLK6
FLAG 400 1152 0
FLAG 400 928 CLK7
FLAG -544 1152 0
FLAG -544 928 CLK0
FLAG -400 1152 0
FLAG -400 928 CLK1
FLAG -272 1152 0
FLAG -272 928 CLK2
FLAG -128 1152 0
FLAG -128 928 CLK3
SYMBOL res 784 272 R90
WINDOW 0 0 56 VBottom 2
WINDOW 3 32 56 VTop 2
SYMATTR InstName R1
SYMATTR Value R=20
SYMBOL cap 832 384 R0
SYMATTR InstName C1
SYMATTR Value 1p
SYMBOL voltage 48 224 R0
SYMATTR InstName V1
SYMATTR Value 4
SYMBOL res 400 352 R180
WINDOW 0 36 76 Left 2
WINDOW 3 36 40 Left 2
SYMATTR InstName R2
SYMATTR Value 20
SYMBOL bv 528 320 R0
SYMATTR InstName B1
SYMATTR Value V=V(IN1)
SYMBOL voltage -16 992 R0
WINDOW 3 24 96 Invisible 2
SYMATTR InstName V2
SYMATTR Value PULSE(0 1 {t_delay} 1n 1n {t_0n} {t_period} 1)
SYMBOL voltage 128 992 R0
WINDOW 3 24 96 Invisible 2
SYMATTR InstName V3
SYMATTR Value PULSE(0 1 {t_delay} 1n 1n {t_0n} {t_period} 1)
SYMBOL voltage 256 992 R0
WINDOW 3 24 96 Invisible 2
SYMATTR InstName V4
SYMATTR Value PULSE(0 1 {t_delay} 1n 1n {t_0n} {t_period} 1)
SYMBOL voltage 400 992 R0
WINDOW 3 24 96 Invisible 2
SYMATTR InstName V5
SYMATTR Value PULSE(0 1 {t_delay} 1n 1n {t_0n} {t_period} 1)
SYMBOL voltage -544 992 R0
WINDOW 3 24 96 Invisible 2
SYMATTR InstName V6
SYMATTR Value PULSE(0 1 {t_delay} 1n 1n {t_0n} {t_period} 1)
SYMBOL voltage -400 992 R0
WINDOW 3 24 96 Invisible 2
SYMATTR InstName V7
SYMATTR Value PULSE(0 1 {t_delay} 1n 1n {t_on+t_delay} {t_period} 1)
SYMBOL voltage -272 992 R0
WINDOW 3 24 96 Invisible 2
SYMATTR InstName V8
SYMATTR Value PULSE(0 1 {t_delay} 1n 1n {t_0n} {t_period} 1)
SYMBOL voltage -128 992 R0
WINDOW 3 24 96 Invisible 2
SYMATTR InstName V9
SYMATTR Value PULSE(0 1 {t_delay} 1n 1n {t_0n} {t_period} 1)
TEXT 72 520 Left 2 !.tran 1m 10m
TEXT 216 648 Left 2 !.param V = {if(4>0.5,1,2)}
TEXT 912 1096 Left 2 !;TIMINGS\n.param t_delay 0.1m\n.param t_on 0.5m\n.param t_period 10m
