Version 4
SHEET 1 1196 680
TEXT 456 120 Left 2 !.lib /Users/johnlimjsj/Documents/LTspice/FYP/Amplifier/Amplifier.lib
