Version 4
SHEET 1 1460 680
TEXT 720 56 Left 2 !.lib /Users/johnlimjsj/Documents/LTspice/FYP/Amplifier/Amplifier.lib
