Version 4
SHEET 1 1140 680
TEXT 400 184 Left 2 !.lib /Users/johnlimjsj/Documents/LTspice/FYP/Amplifier/Amplifier.lib
