Version 4
SHEET 1 1256 680
WIRE 208 -48 96 -48
WIRE 336 -48 208 -48
WIRE 576 -48 336 -48
WIRE 640 -48 576 -48
WIRE 208 -32 208 -48
WIRE 736 -32 704 -32
WIRE 784 -32 736 -32
WIRE 816 -32 784 -32
WIRE 96 -16 96 -48
WIRE 640 -16 512 -16
WIRE 48 32 -16 32
WIRE 208 64 208 32
WIRE 336 64 336 32
WIRE 336 64 208 64
WIRE 384 64 336 64
WIRE 512 64 512 -16
WIRE 512 64 464 64
WIRE 576 64 512 64
WIRE 736 64 736 -32
WIRE 736 64 656 64
WIRE 96 176 96 80
WIRE 208 176 208 64
WIRE 512 176 512 64
WIRE 576 176 512 176
WIRE 736 176 736 64
WIRE 736 176 640 176
WIRE 1184 240 1184 176
WIRE -496 256 -528 256
WIRE -528 288 -528 256
WIRE 1184 352 1184 320
WIRE 1184 352 1072 352
WIRE 1184 384 1184 352
WIRE 1072 400 1072 352
WIRE -528 464 -528 368
WIRE 1184 512 1184 464
FLAG 1072 400 0
FLAG 1184 176 Vdd
FLAG 1184 512 Vee
FLAG 208 176 0
FLAG -528 464 0
FLAG 784 -32 Vout
FLAG -496 256 Vpress_sine
FLAG 576 -48 Vin
FLAG 96 176 0
FLAG -16 32 Vpress_sine
SYMBOL voltage 1184 224 R0
SYMATTR InstName V1
SYMATTR Value 15V
SYMBOL voltage 1184 368 R0
SYMATTR InstName V2
SYMATTR Value 15V
SYMBOL voltage -528 272 R0
SYMATTR InstName V3
SYMATTR Value SINE(0 {Vsrc} 10)
SYMATTR Value2 AC 1m
SYMBOL Opamps/opamp 672 32 M180
WINDOW 0 0 32 Invisible 2
SYMATTR InstName U2
SYMBOL cap 640 160 R90
WINDOW 0 0 32 VBottom 2
WINDOW 3 32 32 VTop 2
SYMATTR InstName Cfb
SYMATTR Value 10p
SYMBOL res 480 48 R90
WINDOW 0 0 56 VBottom 2
WINDOW 3 32 56 VTop 2
SYMATTR InstName Ri
SYMATTR Value 0.1k
SYMBOL cap 192 -32 R0
SYMATTR InstName Cc
SYMATTR Value 1p
SYMBOL res 352 48 R180
WINDOW 0 36 76 Left 2
WINDOW 3 36 40 Left 2
SYMATTR InstName Rb
SYMATTR Value 5g
SYMBOL res 672 48 R90
WINDOW 0 0 56 VBottom 2
WINDOW 3 32 56 VTop 2
SYMATTR InstName Rfb
SYMATTR Value 1meg
SYMBOL SENSOR_PZE_SIMPLE 96 32 R0
WINDOW 0 56 4 Invisible 2
SYMATTR InstName X1
TEXT 248 384 Left 2 !.lib opamp.sub\n.step param Vsrc 0.1p 0.9m 0.3m\n.tran 0.1m 10m
TEXT 264 520 Left 2 ;simulations:\n.tran 0.1m 10m\n.ac oct 100 1 100k\nPULSE (0 {Vsrc} 0 1u 1u 2m 4m 10)\nSINE(0 0.1m 1k)
