Version 4
SHEET 1 880 680
WIRE 336 80 16 80
WIRE 336 128 336 80
WIRE 16 144 16 80
WIRE 16 304 16 224
WIRE 144 304 16 304
WIRE 144 320 144 304
FLAG 144 320 0
SYMBOL res 0 128 R0
SYMATTR InstName R1
SYMATTR Value 1k
SYMBOL motor 336 176 R0
SYMATTR InstName X2
TEXT -16 344 Left 2 !.tran 0.1m 2m
