.subckt myAmplifier 1 2 3



.ends myAmplifier