Version 4
SHEET 1 3044 1064
WIRE 2288 -48 2176 -48
WIRE 2416 -48 2368 -48
WIRE 2576 -32 2480 -32
WIRE 2608 -32 2576 -32
WIRE 2800 -32 2688 -32
WIRE 2848 -32 2800 -32
WIRE 2960 -32 2928 -32
WIRE 2416 -16 2384 -16
WIRE 2576 -16 2576 -32
WIRE 1328 48 1184 48
WIRE 1472 48 1408 48
WIRE 2384 80 2384 -16
WIRE 2576 80 2576 64
WIRE 2576 80 2384 80
WIRE 2576 96 2576 80
WIRE 2800 128 2800 -32
WIRE 2848 128 2800 128
WIRE 2960 144 2960 -32
WIRE 2960 144 2912 144
WIRE 3040 144 2960 144
WIRE 1056 160 992 160
WIRE 1184 160 1184 48
WIRE 1184 160 1136 160
WIRE 1232 160 1184 160
WIRE 1344 160 1312 160
WIRE 2848 160 2800 160
WIRE 640 176 608 176
WIRE 864 176 800 176
WIRE 1472 176 1472 48
WIRE 1536 176 1472 176
WIRE 1648 176 1616 176
WIRE 2576 192 2576 176
WIRE 2576 192 2384 192
WIRE 640 208 608 208
WIRE 864 208 800 208
WIRE 992 208 992 160
WIRE 2576 208 2576 192
WIRE 1184 256 1184 160
WIRE 1248 256 1184 256
WIRE 1344 272 1344 160
WIRE 1344 272 1312 272
WIRE 1360 272 1344 272
WIRE 1472 272 1472 176
WIRE 1472 272 1440 272
WIRE 1504 272 1472 272
WIRE 1248 288 1040 288
WIRE 1648 288 1648 176
WIRE 1648 288 1568 288
WIRE 1712 288 1648 288
WIRE 2384 288 2384 192
WIRE 2416 288 2384 288
WIRE 720 304 720 256
WIRE 1504 304 1472 304
WIRE 2576 304 2576 288
WIRE 2576 304 2480 304
WIRE 2608 304 2576 304
WIRE 2800 304 2800 160
WIRE 2800 304 2688 304
WIRE 2848 304 2800 304
WIRE 2960 304 2928 304
WIRE 2288 320 2176 320
WIRE 2416 320 2368 320
WIRE 1472 352 1472 304
WIRE 1472 352 1040 352
WIRE 2960 352 2960 304
WIRE -208 768 -208 704
WIRE -64 768 -64 704
WIRE 80 768 80 704
WIRE -208 896 -208 848
WIRE -64 896 -64 848
WIRE 80 896 80 848
FLAG 80 896 0
FLAG -64 896 0
FLAG -208 896 0
FLAG -64 704 Vdd
FLAG -208 704 mode
FLAG 608 208 Vdd
FLAG 608 176 mode
FLAG 80 704 vpress
FLAG 720 304 vpress
FLAG 864 176 V+
FLAG 864 208 V-
FLAG 2960 352 0
FLAG 2176 -48 V+
FLAG 2176 320 V-
FLAG 992 208 0
FLAG 1040 352 V+
FLAG 1040 288 V-
FLAG 1712 288 Vout
IOPIN 1712 288 Out
SYMBOL COM_WHEATSTONE 720 192 R0
SYMATTR InstName WheatStone
SYMBOL voltage 80 752 R0
SYMATTR InstName V2
SYMATTR Value SINE(0 2.5 100)
SYMATTR Value2 AC 10
SYMBOL voltage -64 752 R0
SYMATTR InstName V3
SYMATTR Value 5
SYMATTR Value2 AC 10
SYMBOL voltage -208 752 R0
SYMATTR InstName V4
SYMATTR Value 1
SYMATTR Value2 AC 10
SYMBOL Opamps/opamp 2448 32 M180
WINDOW 0 0 32 Invisible 2
SYMATTR InstName U4
SYMBOL Opamps/opamp 2448 240 R0
WINDOW 0 0 32 Invisible 2
SYMATTR InstName U5
SYMBOL Opamps/opamp 2880 80 R0
WINDOW 0 0 32 Invisible 2
SYMATTR InstName U6
SYMBOL res 2592 304 R180
WINDOW 0 36 76 Left 2
WINDOW 3 36 40 Left 2
SYMATTR InstName Rf
SYMATTR Value 51.1k
SYMBOL res 2592 80 R180
WINDOW 0 36 76 Left 2
WINDOW 3 36 40 Left 2
SYMATTR InstName Rf
SYMATTR Value 51.1k
SYMBOL res 2592 192 R180
WINDOW 0 36 76 Left 2
WINDOW 3 36 40 Left 2
SYMATTR InstName Rg
SYMATTR Value 100k
SYMBOL res 2592 -16 R270
WINDOW 0 32 56 VTop 2
WINDOW 3 0 56 VBottom 2
SYMATTR InstName R2
SYMATTR Value 10k
SYMBOL res 2592 320 R270
WINDOW 0 32 56 VTop 2
WINDOW 3 0 56 VBottom 2
SYMATTR InstName R1
SYMATTR Value 10k
SYMBOL res 2832 320 R270
WINDOW 0 32 56 VTop 2
WINDOW 3 0 56 VBottom 2
SYMATTR InstName R3
SYMATTR Value 100k
SYMBOL res 2832 -16 R270
WINDOW 0 32 56 VTop 2
WINDOW 3 0 56 VBottom 2
SYMATTR InstName R4
SYMATTR Value 100k
SYMBOL res 2272 -32 R270
WINDOW 0 32 56 VTop 2
WINDOW 3 0 56 VBottom 2
SYMATTR InstName R+
SYMATTR Value 1k
SYMBOL res 2272 336 R270
WINDOW 0 32 56 VTop 2
WINDOW 3 0 56 VBottom 2
SYMATTR InstName R-
SYMATTR Value 1k
SYMBOL Opamps/opamp 1280 208 R0
SYMATTR InstName U3
SYMBOL Opamps/opamp 1536 224 R0
SYMATTR InstName U7
SYMBOL res 1344 288 R270
WINDOW 0 32 56 VTop 2
WINDOW 3 0 56 VBottom 2
SYMATTR InstName R1
SYMATTR Value 10k
SYMBOL res 1216 176 R270
WINDOW 0 32 56 VTop 2
WINDOW 3 0 56 VBottom 2
SYMATTR InstName R4
SYMATTR Value 20k
SYMBOL res 1312 64 R270
WINDOW 0 32 56 VTop 2
WINDOW 3 0 56 VBottom 2
SYMATTR InstName RG
SYMATTR Value {Rg}
SYMBOL res 1632 160 R90
WINDOW 0 0 56 VBottom 2
WINDOW 3 32 56 VTop 2
SYMATTR InstName R2
SYMATTR Value 10k
SYMBOL res 1152 144 R90
WINDOW 0 0 56 VBottom 2
WINDOW 3 32 56 VTop 2
SYMATTR InstName R3
SYMATTR Value 20k
TEXT 192 680 Left 2 !.lib opamp.sub
TEXT 512 832 Left 2 !.tran 100m\n;.op
TEXT 520 792 Left 2 !.param Rg 1000
