Version 4
SHEET 1 3044 1216
WIRE 384 160 240 160
WIRE 528 160 464 160
WIRE 112 272 48 272
WIRE 240 272 240 160
WIRE 240 272 192 272
WIRE 288 272 240 272
WIRE 400 272 368 272
WIRE 528 288 528 160
WIRE 592 288 528 288
WIRE 704 288 672 288
WIRE -368 304 -416 304
WIRE -160 304 -208 304
WIRE 48 320 48 272
WIRE -368 336 -416 336
WIRE -160 336 -208 336
WIRE 240 368 240 272
WIRE 304 368 240 368
WIRE 400 384 400 272
WIRE 400 384 368 384
WIRE 416 384 400 384
WIRE 528 384 528 288
WIRE 528 384 496 384
WIRE 560 384 528 384
WIRE 304 400 96 400
WIRE 704 400 704 288
WIRE 704 400 624 400
WIRE 768 400 704 400
WIRE -288 416 -288 384
WIRE 560 416 528 416
WIRE 528 464 528 416
WIRE 528 464 96 464
WIRE -208 768 -208 704
WIRE -64 768 -64 704
WIRE 80 768 80 704
WIRE -208 896 -208 848
WIRE -64 896 -64 848
WIRE 80 896 80 848
WIRE -208 1072 -208 1008
WIRE -80 1072 -80 1008
WIRE -208 1200 -208 1152
WIRE -80 1200 -80 1152
FLAG 80 896 0
FLAG -64 896 0
FLAG -208 896 0
FLAG -64 704 Vdd
FLAG -208 704 mode
FLAG 80 704 vpress
FLAG 48 320 0
FLAG 96 464 V-
FLAG 96 400 V+
FLAG 768 400 Vout
IOPIN 768 400 Out
FLAG -208 1200 0
FLAG -208 1008 Vac+
FLAG -288 416 vpress
FLAG -416 336 Vdd
FLAG -416 304 mode
FLAG -160 304 V+
FLAG -160 336 V-
FLAG -80 1200 0
FLAG -80 1008 Vac-
SYMBOL voltage 80 752 R0
SYMATTR InstName V2
SYMATTR Value SINE(0 2.5 100)
SYMATTR Value2 AC 1
SYMBOL voltage -64 752 R0
SYMATTR InstName V3
SYMATTR Value 5
SYMBOL voltage -208 752 R0
SYMATTR InstName V4
SYMATTR Value 1
SYMBOL Opamps/opamp 336 320 R0
SYMATTR InstName U3
SYMBOL Opamps/opamp 592 336 R0
SYMATTR InstName U7
SYMBOL res 400 400 R270
WINDOW 0 32 56 VTop 2
WINDOW 3 0 56 VBottom 2
SYMATTR InstName R1
SYMATTR Value {_R1}
SYMBOL res 272 288 R270
WINDOW 0 32 56 VTop 2
WINDOW 3 0 56 VBottom 2
SYMATTR InstName R4
SYMATTR Value {R1}
SYMBOL res 368 176 R270
WINDOW 0 32 56 VTop 2
WINDOW 3 0 56 VBottom 2
SYMATTR InstName RG
SYMATTR Value {Rg}
SYMBOL res 688 272 R90
WINDOW 0 0 56 VBottom 2
WINDOW 3 32 56 VTop 2
SYMATTR InstName R2
SYMATTR Value {_R2}
SYMBOL res 208 256 R90
WINDOW 0 0 56 VBottom 2
WINDOW 3 32 56 VTop 2
SYMATTR InstName R3
SYMATTR Value {R2}
SYMBOL voltage -208 1056 R0
SYMATTR InstName V1
SYMATTR Value 1
SYMATTR Value2 AC 1
SYMBOL COM_WHEATSTONE -288 320 R0
SYMATTR InstName WheatstoneBridge
SYMBOL voltage -80 1056 R0
SYMATTR InstName V5
SYMATTR Value 1
SYMATTR Value2 AC 1 180
TEXT 192 680 Left 2 !.lib opamp.sub
TEXT 536 968 Left 2 !.tran 100m\n;.ac dec 1 1 1Meg\n;.op
TEXT 520 792 Left 2 !;.step param Rg list 100k 10k 1k\n.param Rg 1k\n.param R3 20k\n;.step param R3 list 20k 20.000001k
TEXT 1056 776 Left 2 !;RESISTANCE\n.param r_base 10k\n.param ratio 1\n.step param tolerance list 0 1 10 20\n.param tol {(100 + tolerance)/100}\n.param _ratio {ratio*tol}\n.param R1 {r_base}\n.param R2 {R1*ratio}\n.param _R1 {R1}\n.param _R2 {R2*tol}
