Version 4
SHEET 1 1700 1168
WIRE 448 208 368 208
WIRE 608 208 528 208
WIRE 640 208 608 208
WIRE 752 208 720 208
WIRE 16 240 -32 240
WIRE 224 240 176 240
WIRE 16 272 -32 272
WIRE 224 272 176 272
WIRE 608 288 608 208
WIRE 656 288 608 288
WIRE 752 304 752 208
WIRE 752 304 720 304
WIRE 816 304 752 304
WIRE 448 320 368 320
WIRE 576 320 528 320
WIRE 656 320 576 320
WIRE 576 352 576 320
WIRE 96 384 96 320
WIRE 576 480 576 432
WIRE -512 512 -512 448
WIRE -512 624 -512 592
WIRE -176 800 -176 752
WIRE -176 800 -256 800
WIRE -96 800 -176 800
WIRE -384 816 -384 752
WIRE -256 816 -256 800
WIRE -96 816 -96 800
WIRE -384 928 -384 896
WIRE -256 944 -256 896
WIRE -96 976 -96 896
WIRE -256 1024 -256 944
WIRE -96 1024 -96 976
WIRE -256 1120 -256 1104
WIRE -176 1120 -256 1120
WIRE -96 1120 -96 1104
WIRE -96 1120 -176 1120
WIRE -176 1152 -176 1120
FLAG -384 928 0
FLAG 576 480 0
FLAG 816 304 Vout
IOPIN 816 304 Out
FLAG -176 1152 0
FLAG -256 944 V-
FLAG -96 976 V+
FLAG -384 752 Vdd
FLAG -32 272 Vdd
FLAG -32 240 Vdd
FLAG -512 624 0
FLAG -512 448 Vpress
FLAG 96 384 Vpress
FLAG -176 752 Vdd
FLAG 368 208 V-
FLAG 368 320 V+
SYMBOL res -272 800 R0
SYMATTR InstName R1
SYMATTR Value {Rref+Rvar}
SYMBOL res -112 800 R0
SYMATTR InstName R2
SYMATTR Value {Rref-Rvar}
SYMBOL res -112 1008 R0
SYMATTR InstName R3
SYMATTR Value {Rref+Rvar}
SYMBOL res -272 1008 R0
SYMATTR InstName R4
SYMATTR Value {Rref-Rvar}
SYMBOL voltage -384 800 R0
SYMATTR InstName V1
SYMATTR Value 5
SYMATTR Value2 AC 10
SYMBOL Opamps/opamp 688 240 R0
SYMATTR InstName U1
SYMBOL res 560 336 R0
SYMATTR InstName R4
SYMATTR Value 150k
SYMBOL res 736 192 R90
WINDOW 0 0 56 VBottom 2
WINDOW 3 32 56 VTop 2
SYMATTR InstName R2
SYMATTR Value 150k
SYMBOL res 544 304 R90
WINDOW 0 -5 58 VBottom 2
WINDOW 3 32 56 VTop 2
SYMATTR InstName R3
SYMATTR Value 1k
SYMBOL res 544 192 R90
WINDOW 0 0 56 VBottom 2
WINDOW 3 32 56 VTop 2
SYMATTR InstName R1
SYMATTR Value 1k
SYMBOL COM_WHEATSTONE 96 256 R0
SYMATTR InstName X1
SYMBOL voltage -512 496 R0
SYMATTR InstName V2
SYMATTR Value SINE(0 0.25 100)
SYMATTR Value2 AC 10
TEXT 192 680 Left 2 !;.lib /Users/johnlimjsj/Documents/LTspice/FYP/Amplifier/;Amplifier.lib\n.lib opamp.sub
TEXT 976 432 Left 2 !;.save V(Vout)\n.param Rscale 1\n.param Rref_ 2000\n.param Rvar_ 20\n.param Rref {Rref_*Rscale}\n.param Rvar {Rvar_*Rscale}\n;.measure VoutAvg avg V(Vout)\n;.option plotwinsize=0 numdgt=15
TEXT 440 16 Left 2 !.tran 100m\n;.op
TEXT 448 -16 Left 2 ;.ac oct 100 1 10000k
TEXT 64 576 Left 2 ;.step param e list -4m -2m 0 2m 4m\n.step temp list 0 25 50 75
TEXT 376 736 Left 2 ;.param GF 100\n.param Tref 298\n.param C 0.001\n.param Rref 2000\n.param temp_K {temp+273}\n.param Rvar_i {GF*e*Rref}\n.param Rvar_t {Rref*e*(Tref*GF/temp_K + C*e*(Tref*Tref)/(temp_K*temp_K))}\n.param Rvar {Rvar_t}
