Version 4
SHEET 1 3140 1336
WIRE 352 32 288 32
WIRE 480 32 432 32
WIRE 624 48 544 48
WIRE 656 48 624 48
WIRE 784 48 736 48
WIRE 832 48 784 48
WIRE 944 48 912 48
WIRE 480 64 448 64
WIRE 624 64 624 48
WIRE 448 160 448 64
WIRE 624 160 624 144
WIRE 624 160 448 160
WIRE 624 176 624 160
WIRE -128 192 -160 192
WIRE 80 192 32 192
WIRE 784 208 784 48
WIRE 832 208 784 208
WIRE -128 224 -160 224
WIRE 80 224 32 224
WIRE 944 224 944 48
WIRE 944 224 896 224
WIRE 1024 224 944 224
WIRE 832 240 784 240
WIRE 624 272 624 256
WIRE 624 272 448 272
WIRE 624 288 624 272
WIRE -48 320 -48 272
WIRE 448 368 448 272
WIRE 480 368 448 368
WIRE 624 384 624 368
WIRE 624 384 544 384
WIRE 656 384 624 384
WIRE 784 384 784 240
WIRE 784 384 736 384
WIRE 832 384 784 384
WIRE 944 384 912 384
WIRE 352 400 288 400
WIRE 480 400 432 400
WIRE 944 432 944 384
WIRE -208 768 -208 704
WIRE -64 768 -64 704
WIRE 80 768 80 704
WIRE -208 896 -208 848
WIRE -64 896 -64 848
WIRE 80 896 80 848
WIRE -208 1072 -208 1008
WIRE -80 1072 -80 1008
WIRE -208 1200 -208 1152
WIRE -80 1200 -80 1152
FLAG 80 896 0
FLAG -64 896 0
FLAG -208 896 0
FLAG -64 704 Vdd
FLAG -208 704 mode
FLAG -160 224 Vdd
FLAG -160 192 mode
FLAG 80 704 vpress_sine
FLAG -48 320 vpress_sine
FLAG 80 192 V+
FLAG 80 224 V-
FLAG 944 432 0
FLAG 288 32 V+
FLAG 288 400 V-
FLAG 1024 224 Vout
IOPIN 1024 224 Out
FLAG -208 1200 0
FLAG -208 1008 Vac+
FLAG -80 1200 0
FLAG -80 1008 Vac-
SYMBOL COM_WHEATSTONE -48 208 R0
SYMATTR InstName WheatStone
SYMBOL voltage 80 752 R0
WINDOW 3 24 96 Invisible 2
SYMATTR Value SINE(0 2.5 100)
SYMATTR InstName V2
SYMATTR Value2 AC 1
SYMBOL voltage -64 752 R0
SYMATTR InstName V3
SYMATTR Value 5
SYMATTR Value2 AC 1
SYMBOL voltage -208 752 R0
SYMATTR InstName V4
SYMATTR Value 1
SYMATTR Value2 AC 10
SYMBOL Opamps/opamp 512 112 M180
WINDOW 0 0 32 Invisible 2
SYMATTR InstName U4
SYMBOL Opamps/opamp 512 320 R0
WINDOW 0 0 32 Invisible 2
SYMATTR InstName U5
SYMBOL Opamps/opamp 864 160 R0
WINDOW 0 0 32 Invisible 2
SYMATTR InstName U6
SYMBOL res 640 384 R180
WINDOW 0 36 76 Left 2
WINDOW 3 36 40 Left 2
SYMATTR InstName Rf2
SYMATTR Value 51.1k
SYMBOL res 640 160 R180
WINDOW 0 36 76 Left 2
WINDOW 3 36 40 Left 2
SYMATTR InstName Rf1
SYMATTR Value 51.1k
SYMBOL res 640 272 R180
WINDOW 0 36 76 Left 2
WINDOW 3 36 40 Left 2
SYMATTR InstName Rg
SYMATTR Value {Rg}
SYMBOL res 640 64 R270
WINDOW 0 32 56 VTop 2
WINDOW 3 0 56 VBottom 2
SYMATTR InstName _R1
SYMATTR Value {_R1}
SYMBOL res 640 400 R270
WINDOW 0 32 56 VTop 2
WINDOW 3 0 56 VBottom 2
SYMATTR InstName R1
SYMATTR Value {R1}
SYMBOL res 816 400 R270
WINDOW 0 32 56 VTop 2
WINDOW 3 0 56 VBottom 2
SYMATTR InstName R2
SYMATTR Value {R2}
SYMBOL res 816 64 R270
WINDOW 0 32 56 VTop 2
WINDOW 3 0 56 VBottom 2
SYMATTR InstName _R2
SYMATTR Value {_R2}
SYMBOL res 336 48 R270
WINDOW 0 32 56 VTop 2
WINDOW 3 0 56 VBottom 2
SYMATTR InstName R+
SYMATTR Value 1k
SYMBOL res 336 416 R270
WINDOW 0 32 56 VTop 2
WINDOW 3 0 56 VBottom 2
SYMATTR InstName R-
SYMATTR Value 1k
SYMBOL voltage -208 1056 R0
SYMATTR InstName V1
SYMATTR Value 1
SYMATTR Value2 AC 1
SYMBOL voltage -80 1056 R0
SYMATTR InstName V5
SYMATTR Value 1
SYMATTR Value2 AC 1 180
TEXT 192 680 Left 2 !.lib opamp.sub
TEXT 440 1256 Left 2 !;SIMULATIONS\n.tran 100m\n;.ac dec 1 1 10Meg\n;.op
TEXT 520 792 Left 2 !;.step param Rg list 100k 10k 1k\n.param Rg 100k
TEXT 432 928 Left 2 !;RESISTANCE\n.param r_base 10k\n.param ratio 10\n.step param tolerance list 0 1 10 20\n.param tol {(100 + tolerance)/100}\n.param _ratio {ratio*tol}\n.param R1 {r_base}\n.param R2 {R1*ratio}\n.param _R1 {R1}\n.param _R2 {R2*tol}
